* File: /home/ece658_2020/chmaxwell/lab5/part4/arbiter_puf.pex.netlist.pex
* Created: Tue Dec  8 22:00:59 2020
* Program "Calibre xRC"
* Version "v2011.3_29.20"
* Nominal Temperature: 27C
* Circuit Temperature: 27C
* 
.subckt PM_ARBITER_PUF%XI6/NET19 10 13 16 19 21 23 26 27 29 31 32 34 39 41 48 50
+ 52 56 63 70
c126 70 0 0.00190141f
c127 56 0 0.040549f
c128 52 0 0.00536819f
c129 50 0 0.0879051f
c130 48 0 0.00445109f
c131 41 0 0.00445105f
c132 39 0 0.05902f
c133 34 0 0.00571186f
c134 32 0 0.00118067f
c135 31 0 0.00564996f
c136 29 0 0.00147745f
c137 27 0 0.0132335f
c138 26 0 0.00465847f
c139 23 0 0.0138567f
c140 21 0 0.00353873f
c141 19 0 0.0656396f
c142 16 0 0.0367438f
c143 13 0 0.0550893f
c144 10 0 0.0473622f
r145 58 70 102.4
r146 54 56 102.4
r147 54 58 3.26786
r148 52 63 0.00703704
r149 50 52 102.4
r150 50 54 3.32143
r151 46 48 102.4
r152 44 46 8.58036
r153 39 41 102.4
r154 39 44 9.91071
r155 32 34 89.3538
r156 29 31 89.3538
r157 28 48 0.0223169
r158 27 32 0.0223169
r159 27 28 3.27385
r160 26 44 102.4
r161 26 56 5.26154
r162 24 41 0.0223169
r163 23 29 0.0223169
r164 23 24 3.27385
r165 21 70 0.0140741
r166 18 34 4.7687
r167 18 19 169.65
r168 15 34 4.7687
r169 15 16 82.68
r170 12 31 4.7687
r171 12 13 135.72
r172 9 31 4.7687
r173 9 10 116.61
.ends

.subckt PM_ARBITER_PUF%XI6/NET22 6 15 19 25 30 35 37 39 43 48 51 53 57 58
c101 58 0 0.00439848f
c102 57 0 0.0042148f
c103 53 0 0.00534876f
c104 51 0 0.00390325f
c105 48 0 0.00460246f
c106 43 0 0.00689839f
c107 39 0 0.0473222f
c108 37 0 0.00437718f
c109 35 0 0.00184549f
c110 30 0 0.020966f
c111 25 0 0.00142373f
c112 19 0 0.0299514f
c113 15 0 0.0458721f
c114 6 0 0.059197f
r115 48 50 4.7687
r116 47 53 0.0292308
r117 45 47 102.4
r118 41 43 102.4
r119 39 41 0.866071
r120 39 58 102.4
r121 37 45 0.236014
r122 37 39 3.4375
r123 35 51 0.0140741
r124 33 35 102.4
r125 30 33 1.49107
r126 30 57 102.4
r127 27 48 89.3538
r128 25 27 0.0143939
r129 20 58 0.0223169
r130 19 25 0.0252118
r131 19 20 5.62692
r132 18 57 0.0223169
r133 18 43 0.716154
r134 15 50 105.69
r135 11 48 4.7687
r136 6 11 147.81
.ends

.subckt PM_ARBITER_PUF%XI6/NET25 6 15 19 25 30 35 37 39 43 47 48 51 56 57
c96 57 0 0.00451955f
c97 56 0 0.00421415f
c98 51 0 0.00390363f
c99 48 0 0.0047617f
c100 47 0 0.00509752f
c101 43 0 0.0067124f
c102 39 0 0.0478553f
c103 37 0 0.00608255f
c104 35 0 0.00185651f
c105 30 0 0.020966f
c106 25 0 0.00146734f
c107 19 0 0.0290055f
c108 15 0 0.0446986f
c109 6 0 0.0600095f
r110 48 50 4.7687
r111 45 47 102.4
r112 41 43 102.4
r113 39 41 0.821429
r114 39 57 102.4
r115 37 45 0.236014
r116 37 39 3.5
r117 35 51 0.0140741
r118 33 35 102.4
r119 30 33 1.49107
r120 30 56 102.4
r121 27 48 89.3538
r122 25 27 0.0143939
r123 20 57 0.0223169
r124 19 25 0.0252118
r125 19 20 5.62692
r126 18 56 0.0223169
r127 18 43 0.716154
r128 15 50 102.57
r129 11 48 4.7687
r130 6 11 149.76
.ends

.subckt PM_ARBITER_PUF%XI6/NET24 6 15 19 26 31 33 37 39 47 49 53 56 57 62 64
c90 64 0 0.00459773f
c91 62 0 0.00415893f
c92 57 0 0.00379174f
c93 56 0 0.005483f
c94 55 0 0.00169309f
c95 53 0 0.0017453f
c96 49 0 0.00640711f
c97 47 0 0.0141985f
c98 44 0 0.00136874f
c99 41 0 0.00157022f
c100 39 0 0.00509518f
c101 37 0 0.0388414f
c102 33 0 0.0175954f
c103 31 0 0.00348098f
c104 26 0 0.00252491f
c105 19 0 0.0157168f
c106 15 0 0.0550562f
c107 6 0 0.0499717f
r108 64 66 0.0146154
r109 53 57 0.0135714
r110 51 53 102.4
r111 47 49 102.4
r112 47 55 1.28571
r113 44 66 102.4
r114 42 55 0.124138
r115 42 44 0.108621
r116 41 54 0.124138
r117 41 44 0.108621
r118 37 39 102.4
r119 37 54 2.79464
r120 33 62 102.4
r121 31 51 0.23039
r122 31 33 1.25
r123 26 29 0.0146154
r124 26 56 89.3538
r125 20 64 0.0223169
r126 19 29 0.0223169
r127 19 20 2.87923
r128 18 62 0.0223169
r129 18 49 0.716154
r130 14 56 4.7687
r131 14 15 135.72
r132 11 56 4.7687
r133 6 11 117.78
.ends

.subckt PM_ARBITER_PUF%XI6/NET23 6 15 19 22 28 36 43 46 48 52 53 57 61 63
c88 63 0 0.00443372f
c89 61 0 0.00415846f
c90 57 0 0.00540506f
c91 53 0 0.00516719f
c92 52 0 0.00546544f
c93 51 0 0.00168675f
c94 48 0 0.00640814f
c95 46 0 0.0170664f
c96 43 0 0.00136874f
c97 40 0 0.00157022f
c98 36 0 0.033591f
c99 28 0 0.0209831f
c100 22 0 0.00249249f
c101 19 0 0.0162956f
c102 15 0 0.0580963f
c103 6 0 0.046505f
r104 63 65 0.0146154
r105 46 48 102.4
r106 46 51 1.51786
r107 43 65 102.4
r108 41 51 0.124138
r109 41 43 0.108621
r110 40 50 0.124138
r111 40 43 0.108621
r112 38 57 0.0438462
r113 36 38 102.4
r114 36 50 2.53571
r115 33 53 0.0146154
r116 31 33 102.4
r117 28 31 1.49107
r118 28 61 102.4
r119 22 25 0.0146154
r120 22 52 89.3538
r121 20 63 0.0223169
r122 19 25 0.0223169
r123 19 20 2.87923
r124 18 61 0.0223169
r125 18 48 0.716154
r126 14 52 4.7687
r127 14 15 144.69
r128 11 52 4.7687
r129 6 11 107.64
.ends

.subckt PM_ARBITER_PUF%XI2/NET19 10 13 16 19 21 23 26 27 29 31 32 34 39 41 48 50
+ 52 56 63 70
c126 70 0 0.00190141f
c127 56 0 0.040549f
c128 52 0 0.00536819f
c129 50 0 0.0879051f
c130 48 0 0.00444466f
c131 41 0 0.0045734f
c132 39 0 0.05902f
c133 34 0 0.00571186f
c134 32 0 0.00118067f
c135 31 0 0.00564996f
c136 29 0 0.00147745f
c137 27 0 0.0132335f
c138 26 0 0.00465847f
c139 23 0 0.0138567f
c140 21 0 0.00353873f
c141 19 0 0.0656396f
c142 16 0 0.0367438f
c143 13 0 0.0550893f
c144 10 0 0.0473622f
r145 58 70 102.4
r146 54 56 102.4
r147 54 58 3.26786
r148 52 63 0.00703704
r149 50 52 102.4
r150 50 54 3.32143
r151 46 48 102.4
r152 44 46 8.58036
r153 39 41 102.4
r154 39 44 9.91071
r155 32 34 89.3538
r156 29 31 89.3538
r157 28 48 0.0223169
r158 27 32 0.0223169
r159 27 28 3.27385
r160 26 44 102.4
r161 26 56 5.26154
r162 24 41 0.0223169
r163 23 29 0.0223169
r164 23 24 3.27385
r165 21 70 0.0140741
r166 18 34 4.7687
r167 18 19 169.65
r168 15 34 4.7687
r169 15 16 82.68
r170 12 31 4.7687
r171 12 13 135.72
r172 9 31 4.7687
r173 9 10 116.61
.ends

.subckt PM_ARBITER_PUF%XI2/NET22 6 15 19 25 30 35 37 39 43 48 51 53 57 58
c101 58 0 0.00439848f
c102 57 0 0.0042148f
c103 53 0 0.00534876f
c104 51 0 0.00390325f
c105 48 0 0.00460246f
c106 43 0 0.00689839f
c107 39 0 0.0473222f
c108 37 0 0.00437718f
c109 35 0 0.00184549f
c110 30 0 0.020966f
c111 25 0 0.00142373f
c112 19 0 0.0299514f
c113 15 0 0.0458721f
c114 6 0 0.059197f
r115 48 50 4.7687
r116 47 53 0.0292308
r117 45 47 102.4
r118 41 43 102.4
r119 39 41 0.866071
r120 39 58 102.4
r121 37 45 0.236014
r122 37 39 3.4375
r123 35 51 0.0140741
r124 33 35 102.4
r125 30 33 1.49107
r126 30 57 102.4
r127 27 48 89.3538
r128 25 27 0.0143939
r129 20 58 0.0223169
r130 19 25 0.0252118
r131 19 20 5.62692
r132 18 57 0.0223169
r133 18 43 0.716154
r134 15 50 105.69
r135 11 48 4.7687
r136 6 11 147.81
.ends

.subckt PM_ARBITER_PUF%XI2/NET25 6 15 19 25 30 35 37 39 43 47 48 51 56 57
c96 57 0 0.00451955f
c97 56 0 0.00421415f
c98 51 0 0.00390363f
c99 48 0 0.0047617f
c100 47 0 0.00509752f
c101 43 0 0.0067124f
c102 39 0 0.0478553f
c103 37 0 0.00608255f
c104 35 0 0.00185651f
c105 30 0 0.020966f
c106 25 0 0.00146734f
c107 19 0 0.0290055f
c108 15 0 0.0446986f
c109 6 0 0.0600095f
r110 48 50 4.7687
r111 45 47 102.4
r112 41 43 102.4
r113 39 41 0.821429
r114 39 57 102.4
r115 37 45 0.236014
r116 37 39 3.5
r117 35 51 0.0140741
r118 33 35 102.4
r119 30 33 1.49107
r120 30 56 102.4
r121 27 48 89.3538
r122 25 27 0.0143939
r123 20 57 0.0223169
r124 19 25 0.0252118
r125 19 20 5.62692
r126 18 56 0.0223169
r127 18 43 0.716154
r128 15 50 102.57
r129 11 48 4.7687
r130 6 11 149.76
.ends

.subckt PM_ARBITER_PUF%XI2/NET24 6 15 19 26 31 33 37 39 47 49 53 56 57 62 64
c90 64 0 0.00459773f
c91 62 0 0.00415893f
c92 57 0 0.00379174f
c93 56 0 0.005483f
c94 55 0 0.00169309f
c95 53 0 0.0017453f
c96 49 0 0.00640711f
c97 47 0 0.0141985f
c98 44 0 0.00136874f
c99 41 0 0.00157022f
c100 39 0 0.00509518f
c101 37 0 0.0388414f
c102 33 0 0.0175954f
c103 31 0 0.00348098f
c104 26 0 0.00252491f
c105 19 0 0.0157168f
c106 15 0 0.0550562f
c107 6 0 0.0499717f
r108 64 66 0.0146154
r109 53 57 0.0135714
r110 51 53 102.4
r111 47 49 102.4
r112 47 55 1.28571
r113 44 66 102.4
r114 42 55 0.124138
r115 42 44 0.108621
r116 41 54 0.124138
r117 41 44 0.108621
r118 37 39 102.4
r119 37 54 2.79464
r120 33 62 102.4
r121 31 51 0.23039
r122 31 33 1.25
r123 26 29 0.0146154
r124 26 56 89.3538
r125 20 64 0.0223169
r126 19 29 0.0223169
r127 19 20 2.87923
r128 18 62 0.0223169
r129 18 49 0.716154
r130 14 56 4.7687
r131 14 15 135.72
r132 11 56 4.7687
r133 6 11 117.78
.ends

.subckt PM_ARBITER_PUF%XI2/NET23 6 15 19 22 28 36 43 46 48 52 53 57 61 63
c88 63 0 0.00443372f
c89 61 0 0.00415846f
c90 57 0 0.00540506f
c91 53 0 0.00516719f
c92 52 0 0.00546544f
c93 51 0 0.00168675f
c94 48 0 0.00640814f
c95 46 0 0.0170664f
c96 43 0 0.00136874f
c97 40 0 0.00157022f
c98 36 0 0.033591f
c99 28 0 0.0209831f
c100 22 0 0.00249249f
c101 19 0 0.0162956f
c102 15 0 0.0580963f
c103 6 0 0.046505f
r104 63 65 0.0146154
r105 46 48 102.4
r106 46 51 1.51786
r107 43 65 102.4
r108 41 51 0.124138
r109 41 43 0.108621
r110 40 50 0.124138
r111 40 43 0.108621
r112 38 57 0.0438462
r113 36 38 102.4
r114 36 50 2.53571
r115 33 53 0.0146154
r116 31 33 102.4
r117 28 31 1.49107
r118 28 61 102.4
r119 22 25 0.0146154
r120 22 52 89.3538
r121 20 63 0.0223169
r122 19 25 0.0223169
r123 19 20 2.87923
r124 18 61 0.0223169
r125 18 48 0.716154
r126 14 52 4.7687
r127 14 15 144.69
r128 11 52 4.7687
r129 6 11 107.64
.ends

.subckt PM_ARBITER_PUF%XI1/NET19 10 13 16 19 21 23 26 27 29 31 32 34 39 41 48 50
+ 52 56 63 70
c126 70 0 0.00190141f
c127 56 0 0.040549f
c128 52 0 0.00536819f
c129 50 0 0.0879051f
c130 48 0 0.00444466f
c131 41 0 0.0045734f
c132 39 0 0.05902f
c133 34 0 0.00571186f
c134 32 0 0.00118067f
c135 31 0 0.00564996f
c136 29 0 0.00147745f
c137 27 0 0.0132335f
c138 26 0 0.00465847f
c139 23 0 0.0138567f
c140 21 0 0.00353873f
c141 19 0 0.0656396f
c142 16 0 0.0367438f
c143 13 0 0.0550893f
c144 10 0 0.0473622f
r145 58 70 102.4
r146 54 56 102.4
r147 54 58 3.26786
r148 52 63 0.00703704
r149 50 52 102.4
r150 50 54 3.32143
r151 46 48 102.4
r152 44 46 8.58036
r153 39 41 102.4
r154 39 44 9.91071
r155 32 34 89.3538
r156 29 31 89.3538
r157 28 48 0.0223169
r158 27 32 0.0223169
r159 27 28 3.27385
r160 26 44 102.4
r161 26 56 5.26154
r162 24 41 0.0223169
r163 23 29 0.0223169
r164 23 24 3.27385
r165 21 70 0.0140741
r166 18 34 4.7687
r167 18 19 169.65
r168 15 34 4.7687
r169 15 16 82.68
r170 12 31 4.7687
r171 12 13 135.72
r172 9 31 4.7687
r173 9 10 116.61
.ends

.subckt PM_ARBITER_PUF%XI1/NET22 6 15 19 25 30 35 37 39 43 48 51 53 57 58
c101 58 0 0.00439848f
c102 57 0 0.0042148f
c103 53 0 0.00534876f
c104 51 0 0.00390325f
c105 48 0 0.00460246f
c106 43 0 0.00689839f
c107 39 0 0.0473222f
c108 37 0 0.00437718f
c109 35 0 0.00184549f
c110 30 0 0.020966f
c111 25 0 0.00142373f
c112 19 0 0.0299514f
c113 15 0 0.0458721f
c114 6 0 0.059197f
r115 48 50 4.7687
r116 47 53 0.0292308
r117 45 47 102.4
r118 41 43 102.4
r119 39 41 0.866071
r120 39 58 102.4
r121 37 45 0.236014
r122 37 39 3.4375
r123 35 51 0.0140741
r124 33 35 102.4
r125 30 33 1.49107
r126 30 57 102.4
r127 27 48 89.3538
r128 25 27 0.0143939
r129 20 58 0.0223169
r130 19 25 0.0252118
r131 19 20 5.62692
r132 18 57 0.0223169
r133 18 43 0.716154
r134 15 50 105.69
r135 11 48 4.7687
r136 6 11 147.81
.ends

.subckt PM_ARBITER_PUF%XI1/NET25 6 15 19 25 30 35 37 39 43 47 48 51 56 57
c96 57 0 0.00451955f
c97 56 0 0.00421415f
c98 51 0 0.00390363f
c99 48 0 0.0047617f
c100 47 0 0.00509752f
c101 43 0 0.0067124f
c102 39 0 0.0478553f
c103 37 0 0.00608255f
c104 35 0 0.00185651f
c105 30 0 0.020966f
c106 25 0 0.00146734f
c107 19 0 0.0290055f
c108 15 0 0.0446986f
c109 6 0 0.0600095f
r110 48 50 4.7687
r111 45 47 102.4
r112 41 43 102.4
r113 39 41 0.821429
r114 39 57 102.4
r115 37 45 0.236014
r116 37 39 3.5
r117 35 51 0.0140741
r118 33 35 102.4
r119 30 33 1.49107
r120 30 56 102.4
r121 27 48 89.3538
r122 25 27 0.0143939
r123 20 57 0.0223169
r124 19 25 0.0252118
r125 19 20 5.62692
r126 18 56 0.0223169
r127 18 43 0.716154
r128 15 50 102.57
r129 11 48 4.7687
r130 6 11 149.76
.ends

.subckt PM_ARBITER_PUF%XI1/NET24 6 15 19 26 31 33 37 39 47 49 53 56 57 62 64
c90 64 0 0.00459773f
c91 62 0 0.00415893f
c92 57 0 0.00379174f
c93 56 0 0.005483f
c94 55 0 0.00169309f
c95 53 0 0.0017453f
c96 49 0 0.00640711f
c97 47 0 0.0141985f
c98 44 0 0.00136874f
c99 41 0 0.00157022f
c100 39 0 0.00509518f
c101 37 0 0.0388414f
c102 33 0 0.0175954f
c103 31 0 0.00348098f
c104 26 0 0.00252491f
c105 19 0 0.0157168f
c106 15 0 0.0550562f
c107 6 0 0.0499717f
r108 64 66 0.0146154
r109 53 57 0.0135714
r110 51 53 102.4
r111 47 49 102.4
r112 47 55 1.28571
r113 44 66 102.4
r114 42 55 0.124138
r115 42 44 0.108621
r116 41 54 0.124138
r117 41 44 0.108621
r118 37 39 102.4
r119 37 54 2.79464
r120 33 62 102.4
r121 31 51 0.23039
r122 31 33 1.25
r123 26 29 0.0146154
r124 26 56 89.3538
r125 20 64 0.0223169
r126 19 29 0.0223169
r127 19 20 2.87923
r128 18 62 0.0223169
r129 18 49 0.716154
r130 14 56 4.7687
r131 14 15 135.72
r132 11 56 4.7687
r133 6 11 117.78
.ends

.subckt PM_ARBITER_PUF%XI1/NET23 6 15 19 22 28 36 43 46 48 52 53 57 61 63
c88 63 0 0.00443372f
c89 61 0 0.00415846f
c90 57 0 0.00540506f
c91 53 0 0.00516719f
c92 52 0 0.00546544f
c93 51 0 0.00168675f
c94 48 0 0.00640814f
c95 46 0 0.0170664f
c96 43 0 0.00136874f
c97 40 0 0.00157022f
c98 36 0 0.033591f
c99 28 0 0.0209831f
c100 22 0 0.00249249f
c101 19 0 0.0162956f
c102 15 0 0.0580963f
c103 6 0 0.046505f
r104 63 65 0.0146154
r105 46 48 102.4
r106 46 51 1.51786
r107 43 65 102.4
r108 41 51 0.124138
r109 41 43 0.108621
r110 40 50 0.124138
r111 40 43 0.108621
r112 38 57 0.0438462
r113 36 38 102.4
r114 36 50 2.53571
r115 33 53 0.0146154
r116 31 33 102.4
r117 28 31 1.49107
r118 28 61 102.4
r119 22 25 0.0146154
r120 22 52 89.3538
r121 20 63 0.0223169
r122 19 25 0.0223169
r123 19 20 2.87923
r124 18 61 0.0223169
r125 18 48 0.716154
r126 14 52 4.7687
r127 14 15 144.69
r128 11 52 4.7687
r129 6 11 107.64
.ends

.subckt PM_ARBITER_PUF%XI0/NET19 10 13 16 19 21 23 26 27 29 31 32 34 39 41 48 50
+ 52 56 63 70
c126 70 0 0.00190141f
c127 56 0 0.040549f
c128 52 0 0.00536819f
c129 50 0 0.0879051f
c130 48 0 0.00444466f
c131 41 0 0.0045734f
c132 39 0 0.05902f
c133 34 0 0.00571186f
c134 32 0 0.00118067f
c135 31 0 0.00564996f
c136 29 0 0.00147745f
c137 27 0 0.0132335f
c138 26 0 0.00465847f
c139 23 0 0.0138567f
c140 21 0 0.00353873f
c141 19 0 0.0656396f
c142 16 0 0.0367438f
c143 13 0 0.0550893f
c144 10 0 0.0473622f
r145 58 70 102.4
r146 54 56 102.4
r147 54 58 3.26786
r148 52 63 0.00703704
r149 50 52 102.4
r150 50 54 3.32143
r151 46 48 102.4
r152 44 46 8.58036
r153 39 41 102.4
r154 39 44 9.91071
r155 32 34 89.3538
r156 29 31 89.3538
r157 28 48 0.0223169
r158 27 32 0.0223169
r159 27 28 3.27385
r160 26 44 102.4
r161 26 56 5.26154
r162 24 41 0.0223169
r163 23 29 0.0223169
r164 23 24 3.27385
r165 21 70 0.0140741
r166 18 34 4.7687
r167 18 19 169.65
r168 15 34 4.7687
r169 15 16 82.68
r170 12 31 4.7687
r171 12 13 135.72
r172 9 31 4.7687
r173 9 10 116.61
.ends

.subckt PM_ARBITER_PUF%XI0/NET22 6 15 19 25 30 35 37 39 43 48 51 53 57 58
c101 58 0 0.00439848f
c102 57 0 0.0042148f
c103 53 0 0.00534876f
c104 51 0 0.00390325f
c105 48 0 0.00460246f
c106 43 0 0.00689839f
c107 39 0 0.0473222f
c108 37 0 0.00437718f
c109 35 0 0.00184549f
c110 30 0 0.020966f
c111 25 0 0.00142373f
c112 19 0 0.0299514f
c113 15 0 0.0458721f
c114 6 0 0.059197f
r115 48 50 4.7687
r116 47 53 0.0292308
r117 45 47 102.4
r118 41 43 102.4
r119 39 41 0.866071
r120 39 58 102.4
r121 37 45 0.236014
r122 37 39 3.4375
r123 35 51 0.0140741
r124 33 35 102.4
r125 30 33 1.49107
r126 30 57 102.4
r127 27 48 89.3538
r128 25 27 0.0143939
r129 20 58 0.0223169
r130 19 25 0.0252118
r131 19 20 5.62692
r132 18 57 0.0223169
r133 18 43 0.716154
r134 15 50 105.69
r135 11 48 4.7687
r136 6 11 147.81
.ends

.subckt PM_ARBITER_PUF%XI0/NET25 6 15 19 25 30 35 37 39 43 47 48 51 56 57
c96 57 0 0.00451955f
c97 56 0 0.00421415f
c98 51 0 0.00390363f
c99 48 0 0.0047617f
c100 47 0 0.00509752f
c101 43 0 0.0067124f
c102 39 0 0.0478553f
c103 37 0 0.00608255f
c104 35 0 0.00185651f
c105 30 0 0.020966f
c106 25 0 0.00146734f
c107 19 0 0.0290055f
c108 15 0 0.0446986f
c109 6 0 0.0600095f
r110 48 50 4.7687
r111 45 47 102.4
r112 41 43 102.4
r113 39 41 0.821429
r114 39 57 102.4
r115 37 45 0.236014
r116 37 39 3.5
r117 35 51 0.0140741
r118 33 35 102.4
r119 30 33 1.49107
r120 30 56 102.4
r121 27 48 89.3538
r122 25 27 0.0143939
r123 20 57 0.0223169
r124 19 25 0.0252118
r125 19 20 5.62692
r126 18 56 0.0223169
r127 18 43 0.716154
r128 15 50 102.57
r129 11 48 4.7687
r130 6 11 149.76
.ends

.subckt PM_ARBITER_PUF%XI0/NET24 6 15 19 26 31 33 37 39 47 49 53 56 57 62 64
c90 64 0 0.00459773f
c91 62 0 0.00415893f
c92 57 0 0.00379174f
c93 56 0 0.005483f
c94 55 0 0.00169309f
c95 53 0 0.0017453f
c96 49 0 0.00640711f
c97 47 0 0.0141985f
c98 44 0 0.00136874f
c99 41 0 0.00157022f
c100 39 0 0.00509518f
c101 37 0 0.0388414f
c102 33 0 0.0175954f
c103 31 0 0.00348098f
c104 26 0 0.00252491f
c105 19 0 0.0157168f
c106 15 0 0.0550562f
c107 6 0 0.0499717f
r108 64 66 0.0146154
r109 53 57 0.0135714
r110 51 53 102.4
r111 47 49 102.4
r112 47 55 1.28571
r113 44 66 102.4
r114 42 55 0.124138
r115 42 44 0.108621
r116 41 54 0.124138
r117 41 44 0.108621
r118 37 39 102.4
r119 37 54 2.79464
r120 33 62 102.4
r121 31 51 0.23039
r122 31 33 1.25
r123 26 29 0.0146154
r124 26 56 89.3538
r125 20 64 0.0223169
r126 19 29 0.0223169
r127 19 20 2.87923
r128 18 62 0.0223169
r129 18 49 0.716154
r130 14 56 4.7687
r131 14 15 135.72
r132 11 56 4.7687
r133 6 11 117.78
.ends

.subckt PM_ARBITER_PUF%XI0/NET23 6 15 19 22 28 36 43 46 48 52 53 57 61 63
c88 63 0 0.00443372f
c89 61 0 0.00415846f
c90 57 0 0.00540506f
c91 53 0 0.00516719f
c92 52 0 0.00546544f
c93 51 0 0.00168675f
c94 48 0 0.00640814f
c95 46 0 0.0170664f
c96 43 0 0.00136874f
c97 40 0 0.00157022f
c98 36 0 0.033591f
c99 28 0 0.0209831f
c100 22 0 0.00249249f
c101 19 0 0.0162956f
c102 15 0 0.0580963f
c103 6 0 0.046505f
r104 63 65 0.0146154
r105 46 48 102.4
r106 46 51 1.51786
r107 43 65 102.4
r108 41 51 0.124138
r109 41 43 0.108621
r110 40 50 0.124138
r111 40 43 0.108621
r112 38 57 0.0438462
r113 36 38 102.4
r114 36 50 2.53571
r115 33 53 0.0146154
r116 31 33 102.4
r117 28 31 1.49107
r118 28 61 102.4
r119 22 25 0.0146154
r120 22 52 89.3538
r121 20 63 0.0223169
r122 19 25 0.0223169
r123 19 20 2.87923
r124 18 61 0.0223169
r125 18 48 0.716154
r126 14 52 4.7687
r127 14 15 144.69
r128 11 52 4.7687
r129 6 11 107.64
.ends

.subckt PM_ARBITER_PUF%XI3/NET19 10 13 16 19 21 23 26 27 29 31 32 34 39 41 48 50
+ 52 56 63 70
c126 70 0 0.00190141f
c127 56 0 0.040549f
c128 52 0 0.00536819f
c129 50 0 0.0879051f
c130 48 0 0.00444466f
c131 41 0 0.0045734f
c132 39 0 0.05902f
c133 34 0 0.00571186f
c134 32 0 0.00118067f
c135 31 0 0.00564996f
c136 29 0 0.00147745f
c137 27 0 0.0132335f
c138 26 0 0.00465847f
c139 23 0 0.0138567f
c140 21 0 0.00353873f
c141 19 0 0.0656396f
c142 16 0 0.0367438f
c143 13 0 0.0550893f
c144 10 0 0.0473622f
r145 58 70 102.4
r146 54 56 102.4
r147 54 58 3.26786
r148 52 63 0.00703704
r149 50 52 102.4
r150 50 54 3.32143
r151 46 48 102.4
r152 44 46 8.58036
r153 39 41 102.4
r154 39 44 9.91071
r155 32 34 89.3538
r156 29 31 89.3538
r157 28 48 0.0223169
r158 27 32 0.0223169
r159 27 28 3.27385
r160 26 44 102.4
r161 26 56 5.26154
r162 24 41 0.0223169
r163 23 29 0.0223169
r164 23 24 3.27385
r165 21 70 0.0140741
r166 18 34 4.7687
r167 18 19 169.65
r168 15 34 4.7687
r169 15 16 82.68
r170 12 31 4.7687
r171 12 13 135.72
r172 9 31 4.7687
r173 9 10 116.61
.ends

.subckt PM_ARBITER_PUF%XI3/NET22 6 15 19 25 30 35 37 39 43 48 51 53 57 58
c101 58 0 0.00439848f
c102 57 0 0.0042148f
c103 53 0 0.00534876f
c104 51 0 0.00390325f
c105 48 0 0.00460246f
c106 43 0 0.00689839f
c107 39 0 0.0473222f
c108 37 0 0.00437718f
c109 35 0 0.00184549f
c110 30 0 0.020966f
c111 25 0 0.00142373f
c112 19 0 0.0299514f
c113 15 0 0.0458721f
c114 6 0 0.059197f
r115 48 50 4.7687
r116 47 53 0.0292308
r117 45 47 102.4
r118 41 43 102.4
r119 39 41 0.866071
r120 39 58 102.4
r121 37 45 0.236014
r122 37 39 3.4375
r123 35 51 0.0140741
r124 33 35 102.4
r125 30 33 1.49107
r126 30 57 102.4
r127 27 48 89.3538
r128 25 27 0.0143939
r129 20 58 0.0223169
r130 19 25 0.0252118
r131 19 20 5.62692
r132 18 57 0.0223169
r133 18 43 0.716154
r134 15 50 105.69
r135 11 48 4.7687
r136 6 11 147.81
.ends

.subckt PM_ARBITER_PUF%XI3/NET25 6 15 19 25 30 35 37 39 43 47 48 51 56 57
c96 57 0 0.00451955f
c97 56 0 0.00421415f
c98 51 0 0.00390363f
c99 48 0 0.0047617f
c100 47 0 0.00509752f
c101 43 0 0.0067124f
c102 39 0 0.0478553f
c103 37 0 0.00608255f
c104 35 0 0.00185651f
c105 30 0 0.020966f
c106 25 0 0.00146734f
c107 19 0 0.0290055f
c108 15 0 0.0446986f
c109 6 0 0.0600095f
r110 48 50 4.7687
r111 45 47 102.4
r112 41 43 102.4
r113 39 41 0.821429
r114 39 57 102.4
r115 37 45 0.236014
r116 37 39 3.5
r117 35 51 0.0140741
r118 33 35 102.4
r119 30 33 1.49107
r120 30 56 102.4
r121 27 48 89.3538
r122 25 27 0.0143939
r123 20 57 0.0223169
r124 19 25 0.0252118
r125 19 20 5.62692
r126 18 56 0.0223169
r127 18 43 0.716154
r128 15 50 102.57
r129 11 48 4.7687
r130 6 11 149.76
.ends

.subckt PM_ARBITER_PUF%XI3/NET24 6 15 19 26 31 33 37 39 47 49 53 56 57 62 64
c90 64 0 0.00459773f
c91 62 0 0.00415893f
c92 57 0 0.00379174f
c93 56 0 0.005483f
c94 55 0 0.00169309f
c95 53 0 0.0017453f
c96 49 0 0.00640711f
c97 47 0 0.0141985f
c98 44 0 0.00136874f
c99 41 0 0.00157022f
c100 39 0 0.00509518f
c101 37 0 0.0388414f
c102 33 0 0.0175954f
c103 31 0 0.00348098f
c104 26 0 0.00252491f
c105 19 0 0.0157168f
c106 15 0 0.0550562f
c107 6 0 0.0499717f
r108 64 66 0.0146154
r109 53 57 0.0135714
r110 51 53 102.4
r111 47 49 102.4
r112 47 55 1.28571
r113 44 66 102.4
r114 42 55 0.124138
r115 42 44 0.108621
r116 41 54 0.124138
r117 41 44 0.108621
r118 37 39 102.4
r119 37 54 2.79464
r120 33 62 102.4
r121 31 51 0.23039
r122 31 33 1.25
r123 26 29 0.0146154
r124 26 56 89.3538
r125 20 64 0.0223169
r126 19 29 0.0223169
r127 19 20 2.87923
r128 18 62 0.0223169
r129 18 49 0.716154
r130 14 56 4.7687
r131 14 15 135.72
r132 11 56 4.7687
r133 6 11 117.78
.ends

.subckt PM_ARBITER_PUF%XI3/NET23 6 15 19 22 28 36 43 46 48 52 53 57 61 63
c88 63 0 0.00443372f
c89 61 0 0.00415846f
c90 57 0 0.00540506f
c91 53 0 0.00516719f
c92 52 0 0.00546544f
c93 51 0 0.00168675f
c94 48 0 0.00640814f
c95 46 0 0.0170664f
c96 43 0 0.00136874f
c97 40 0 0.00157022f
c98 36 0 0.033591f
c99 28 0 0.0209831f
c100 22 0 0.00249249f
c101 19 0 0.0162956f
c102 15 0 0.0580963f
c103 6 0 0.046505f
r104 63 65 0.0146154
r105 46 48 102.4
r106 46 51 1.51786
r107 43 65 102.4
r108 41 51 0.124138
r109 41 43 0.108621
r110 40 50 0.124138
r111 40 43 0.108621
r112 38 57 0.0438462
r113 36 38 102.4
r114 36 50 2.53571
r115 33 53 0.0146154
r116 31 33 102.4
r117 28 31 1.49107
r118 28 61 102.4
r119 22 25 0.0146154
r120 22 52 89.3538
r121 20 63 0.0223169
r122 19 25 0.0223169
r123 19 20 2.87923
r124 18 61 0.0223169
r125 18 48 0.716154
r126 14 52 4.7687
r127 14 15 144.69
r128 11 52 4.7687
r129 6 11 107.64
.ends

.subckt PM_ARBITER_PUF%XI4/NET19 10 13 16 19 21 23 26 27 29 31 32 34 39 41 48 50
+ 52 56 63 70
c126 70 0 0.00190141f
c127 56 0 0.040549f
c128 52 0 0.00536819f
c129 50 0 0.0879051f
c130 48 0 0.00444466f
c131 41 0 0.0045734f
c132 39 0 0.05902f
c133 34 0 0.00571186f
c134 32 0 0.00118067f
c135 31 0 0.00564996f
c136 29 0 0.00147745f
c137 27 0 0.0132335f
c138 26 0 0.00465847f
c139 23 0 0.0138567f
c140 21 0 0.00353873f
c141 19 0 0.0656396f
c142 16 0 0.0367438f
c143 13 0 0.0550893f
c144 10 0 0.0473622f
r145 58 70 102.4
r146 54 56 102.4
r147 54 58 3.26786
r148 52 63 0.00703704
r149 50 52 102.4
r150 50 54 3.32143
r151 46 48 102.4
r152 44 46 8.58036
r153 39 41 102.4
r154 39 44 9.91071
r155 32 34 89.3538
r156 29 31 89.3538
r157 28 48 0.0223169
r158 27 32 0.0223169
r159 27 28 3.27385
r160 26 44 102.4
r161 26 56 5.26154
r162 24 41 0.0223169
r163 23 29 0.0223169
r164 23 24 3.27385
r165 21 70 0.0140741
r166 18 34 4.7687
r167 18 19 169.65
r168 15 34 4.7687
r169 15 16 82.68
r170 12 31 4.7687
r171 12 13 135.72
r172 9 31 4.7687
r173 9 10 116.61
.ends

.subckt PM_ARBITER_PUF%XI4/NET22 6 15 19 25 30 35 37 39 43 48 51 53 57 58
c101 58 0 0.00439848f
c102 57 0 0.0042148f
c103 53 0 0.00534876f
c104 51 0 0.00390325f
c105 48 0 0.00460246f
c106 43 0 0.00689839f
c107 39 0 0.0473222f
c108 37 0 0.00437718f
c109 35 0 0.00184549f
c110 30 0 0.020966f
c111 25 0 0.00142373f
c112 19 0 0.0299514f
c113 15 0 0.0458721f
c114 6 0 0.059197f
r115 48 50 4.7687
r116 47 53 0.0292308
r117 45 47 102.4
r118 41 43 102.4
r119 39 41 0.866071
r120 39 58 102.4
r121 37 45 0.236014
r122 37 39 3.4375
r123 35 51 0.0140741
r124 33 35 102.4
r125 30 33 1.49107
r126 30 57 102.4
r127 27 48 89.3538
r128 25 27 0.0143939
r129 20 58 0.0223169
r130 19 25 0.0252118
r131 19 20 5.62692
r132 18 57 0.0223169
r133 18 43 0.716154
r134 15 50 105.69
r135 11 48 4.7687
r136 6 11 147.81
.ends

.subckt PM_ARBITER_PUF%XI4/NET25 6 15 19 25 30 35 37 39 43 47 48 51 56 57
c96 57 0 0.00451955f
c97 56 0 0.00421415f
c98 51 0 0.00390363f
c99 48 0 0.0047617f
c100 47 0 0.00509752f
c101 43 0 0.0067124f
c102 39 0 0.0478553f
c103 37 0 0.00608255f
c104 35 0 0.00185651f
c105 30 0 0.020966f
c106 25 0 0.00146734f
c107 19 0 0.0290055f
c108 15 0 0.0446986f
c109 6 0 0.0600095f
r110 48 50 4.7687
r111 45 47 102.4
r112 41 43 102.4
r113 39 41 0.821429
r114 39 57 102.4
r115 37 45 0.236014
r116 37 39 3.5
r117 35 51 0.0140741
r118 33 35 102.4
r119 30 33 1.49107
r120 30 56 102.4
r121 27 48 89.3538
r122 25 27 0.0143939
r123 20 57 0.0223169
r124 19 25 0.0252118
r125 19 20 5.62692
r126 18 56 0.0223169
r127 18 43 0.716154
r128 15 50 102.57
r129 11 48 4.7687
r130 6 11 149.76
.ends

.subckt PM_ARBITER_PUF%XI4/NET24 6 15 19 26 31 33 37 39 47 49 53 56 57 62 64
c90 64 0 0.00459773f
c91 62 0 0.00415893f
c92 57 0 0.00379174f
c93 56 0 0.005483f
c94 55 0 0.00169309f
c95 53 0 0.0017453f
c96 49 0 0.00640711f
c97 47 0 0.0141985f
c98 44 0 0.00136874f
c99 41 0 0.00157022f
c100 39 0 0.00509518f
c101 37 0 0.0388414f
c102 33 0 0.0175954f
c103 31 0 0.00348098f
c104 26 0 0.00252491f
c105 19 0 0.0157168f
c106 15 0 0.0550562f
c107 6 0 0.0499717f
r108 64 66 0.0146154
r109 53 57 0.0135714
r110 51 53 102.4
r111 47 49 102.4
r112 47 55 1.28571
r113 44 66 102.4
r114 42 55 0.124138
r115 42 44 0.108621
r116 41 54 0.124138
r117 41 44 0.108621
r118 37 39 102.4
r119 37 54 2.79464
r120 33 62 102.4
r121 31 51 0.23039
r122 31 33 1.25
r123 26 29 0.0146154
r124 26 56 89.3538
r125 20 64 0.0223169
r126 19 29 0.0223169
r127 19 20 2.87923
r128 18 62 0.0223169
r129 18 49 0.716154
r130 14 56 4.7687
r131 14 15 135.72
r132 11 56 4.7687
r133 6 11 117.78
.ends

.subckt PM_ARBITER_PUF%XI4/NET23 6 15 19 22 28 36 43 46 48 52 53 57 61 63
c88 63 0 0.00443372f
c89 61 0 0.00415846f
c90 57 0 0.00540506f
c91 53 0 0.00516719f
c92 52 0 0.00546544f
c93 51 0 0.00168675f
c94 48 0 0.00640814f
c95 46 0 0.0170664f
c96 43 0 0.00136874f
c97 40 0 0.00157022f
c98 36 0 0.033591f
c99 28 0 0.0209831f
c100 22 0 0.00249249f
c101 19 0 0.0162956f
c102 15 0 0.0580963f
c103 6 0 0.046505f
r104 63 65 0.0146154
r105 46 48 102.4
r106 46 51 1.51786
r107 43 65 102.4
r108 41 51 0.124138
r109 41 43 0.108621
r110 40 50 0.124138
r111 40 43 0.108621
r112 38 57 0.0438462
r113 36 38 102.4
r114 36 50 2.53571
r115 33 53 0.0146154
r116 31 33 102.4
r117 28 31 1.49107
r118 28 61 102.4
r119 22 25 0.0146154
r120 22 52 89.3538
r121 20 63 0.0223169
r122 19 25 0.0223169
r123 19 20 2.87923
r124 18 61 0.0223169
r125 18 48 0.716154
r126 14 52 4.7687
r127 14 15 144.69
r128 11 52 4.7687
r129 6 11 107.64
.ends

.subckt PM_ARBITER_PUF%XI5/NET19 10 13 16 19 21 23 26 27 29 31 32 34 39 41 48 50
+ 52 56 63 70
c126 70 0 0.00190141f
c127 56 0 0.040549f
c128 52 0 0.00536819f
c129 50 0 0.0879051f
c130 48 0 0.00444466f
c131 41 0 0.0045734f
c132 39 0 0.05902f
c133 34 0 0.00571186f
c134 32 0 0.00118067f
c135 31 0 0.00564996f
c136 29 0 0.00147745f
c137 27 0 0.0132335f
c138 26 0 0.00465847f
c139 23 0 0.0138567f
c140 21 0 0.00353873f
c141 19 0 0.0656396f
c142 16 0 0.0367438f
c143 13 0 0.0550893f
c144 10 0 0.0473622f
r145 58 70 102.4
r146 54 56 102.4
r147 54 58 3.26786
r148 52 63 0.00703704
r149 50 52 102.4
r150 50 54 3.32143
r151 46 48 102.4
r152 44 46 8.58036
r153 39 41 102.4
r154 39 44 9.91071
r155 32 34 89.3538
r156 29 31 89.3538
r157 28 48 0.0223169
r158 27 32 0.0223169
r159 27 28 3.27385
r160 26 44 102.4
r161 26 56 5.26154
r162 24 41 0.0223169
r163 23 29 0.0223169
r164 23 24 3.27385
r165 21 70 0.0140741
r166 18 34 4.7687
r167 18 19 169.65
r168 15 34 4.7687
r169 15 16 82.68
r170 12 31 4.7687
r171 12 13 135.72
r172 9 31 4.7687
r173 9 10 116.61
.ends

.subckt PM_ARBITER_PUF%XI5/NET22 6 15 19 25 30 35 37 39 43 48 51 53 57 58
c101 58 0 0.00439848f
c102 57 0 0.0042148f
c103 53 0 0.00534876f
c104 51 0 0.00390325f
c105 48 0 0.00460246f
c106 43 0 0.00689839f
c107 39 0 0.0473222f
c108 37 0 0.00437718f
c109 35 0 0.00184549f
c110 30 0 0.020966f
c111 25 0 0.00142373f
c112 19 0 0.0299514f
c113 15 0 0.0458721f
c114 6 0 0.059197f
r115 48 50 4.7687
r116 47 53 0.0292308
r117 45 47 102.4
r118 41 43 102.4
r119 39 41 0.866071
r120 39 58 102.4
r121 37 45 0.236014
r122 37 39 3.4375
r123 35 51 0.0140741
r124 33 35 102.4
r125 30 33 1.49107
r126 30 57 102.4
r127 27 48 89.3538
r128 25 27 0.0143939
r129 20 58 0.0223169
r130 19 25 0.0252118
r131 19 20 5.62692
r132 18 57 0.0223169
r133 18 43 0.716154
r134 15 50 105.69
r135 11 48 4.7687
r136 6 11 147.81
.ends

.subckt PM_ARBITER_PUF%XI5/NET25 6 15 19 25 30 35 37 39 43 47 48 51 56 57
c96 57 0 0.00451955f
c97 56 0 0.00421415f
c98 51 0 0.00390363f
c99 48 0 0.0047617f
c100 47 0 0.00509752f
c101 43 0 0.0067124f
c102 39 0 0.0478553f
c103 37 0 0.00608255f
c104 35 0 0.00185651f
c105 30 0 0.020966f
c106 25 0 0.00146734f
c107 19 0 0.0290055f
c108 15 0 0.0446986f
c109 6 0 0.0600095f
r110 48 50 4.7687
r111 45 47 102.4
r112 41 43 102.4
r113 39 41 0.821429
r114 39 57 102.4
r115 37 45 0.236014
r116 37 39 3.5
r117 35 51 0.0140741
r118 33 35 102.4
r119 30 33 1.49107
r120 30 56 102.4
r121 27 48 89.3538
r122 25 27 0.0143939
r123 20 57 0.0223169
r124 19 25 0.0252118
r125 19 20 5.62692
r126 18 56 0.0223169
r127 18 43 0.716154
r128 15 50 102.57
r129 11 48 4.7687
r130 6 11 149.76
.ends

.subckt PM_ARBITER_PUF%XI5/NET24 6 15 19 26 31 33 37 39 47 49 53 56 57 62 64
c90 64 0 0.00459773f
c91 62 0 0.00415893f
c92 57 0 0.00379174f
c93 56 0 0.005483f
c94 55 0 0.00169309f
c95 53 0 0.0017453f
c96 49 0 0.00640711f
c97 47 0 0.0141985f
c98 44 0 0.00136874f
c99 41 0 0.00157022f
c100 39 0 0.00509518f